26

H       6.18295691       2.74874702      28.73080617
H       6.15544662       3.83457993      31.92207461
H       4.19816260       4.47982011      27.75844176
H       5.33549095       2.70850307      23.87232816
H       4.62793177       5.65084824      31.32934591
C       5.76478786       3.62419874      28.72472615
C       5.09675754       3.38461937      26.31636188
C       4.07094990       3.45460885      25.26586920
C       4.52825925       3.23028360      23.86408635
H       3.38449270       2.79514645      25.46745571
H       5.78562682       4.03440886      26.10552023
C       4.65379515       3.62419874      27.71814473
H       5.79097285       6.09430982      30.02498575
C       5.30837520       3.95620011      30.12650900
N       6.40950438       3.61522573      31.09931252
H       6.43540064       4.26970811      28.45264517
H       3.84868859       2.75323352      23.37734681
H       3.64956175       4.32673158      25.30701068
H       7.14500128       4.06737570      30.88340418
H       4.51940897       3.41397009      30.33721554
H       4.01241430       2.93875051      27.96296695
H       5.50792348       2.50711283      26.27856441
H       6.57695134       2.74157758      31.06188661
H       4.69350036       4.07223907      23.44142349
C       4.92627608       5.44370651      30.27922418
H       4.06633523       5.71145346      29.63140466
