27

H       0.91012910       2.53584600      12.57051923
N       0.62052476       3.37550216      12.51364786
H       0.80863200       3.69983697      11.70615239
H       0.98872981       5.13824671      13.46604845
H      -0.57516034       4.73151462      19.07235746
H       0.07882667       6.27875246      14.77233695
H       3.25160798       4.66687057      13.98762898
C      -0.45319168       5.02822444      18.19883667
C      -0.63991713       6.72314050      16.56865406
C       1.30175801       4.21460105      13.56343093
H       2.96978037       4.61034683      12.44645395
H       1.70149748       1.90023257      14.73611067
H      -1.21628656       6.81851436      18.50325428
C       0.13806331       4.15011622      17.22695958
H       3.09890843       3.28203896      13.26894633
C      -0.82791404       6.26378561      17.86578861
C       0.34024643       4.60151002      15.90061029
H       0.34007740       2.52684997      18.44073474
H      -0.91400487       7.58206251      16.34155813
C       1.05215314       2.00380635      16.64461239
C       0.95234264       3.74330452      14.95794795
C       0.48986599       2.83335193      17.57558884
H       1.27199270       1.13015634      16.87501932
C       1.29593707       2.46873401      15.35137314
C      -0.05921718       5.93419649      15.62404407
H      -0.25974913       3.39508644      12.64297179
C       2.79176791       4.19151388      13.29076000
