21

H       5.77128515       7.94530456      21.69623740
C       7.74718371       7.42919346      17.72205925
H       6.15347574       6.75403248      22.80559113
C       7.58712136       5.03300606      17.69051305
H       5.44341222       5.01789557      21.28597970
H       7.96977107       4.07375242      17.36172913
H       4.14348283       6.09391302      21.83192791
C       6.59399872       7.49810076      18.49438095
C       5.03497852       6.02610108      21.20862088
C       8.24585432       6.19925015      17.32014983
H       9.14737206       6.14105150      16.72358586
C       4.72458734       6.40395868      19.77089631
H       6.20256720       8.46248813      18.80503401
C       6.44311989       5.10006157      18.47303005
H       4.29136363       7.40859723      19.74567500
C       5.93204644       6.33414216      18.88021780
H       3.94728913       5.71206961      19.43584903
H       8.26242755       8.34006237      17.44125681
N       6.04881955       6.95146409      21.80215048
H       6.98621598       6.83076236      21.37949207
H       5.93972754       4.18652817      18.77750589
